# Packages
 &PACKAGES
 useDiagnostics=.TRUE.,
 useMNC=.TRUE.,
 useOBCS=.TRUE.,
 useKPP=.FALSE.,
 useKL10=.TRUE.,
 &
